6
XYZ from PySCF
C          -0.65652       -0.02860       -0.11893
C           0.65654        0.02862        0.11892
H          -1.24360        0.86268       -0.32427
H          -1.20105       -0.96918       -0.11856
H           1.20109        0.96919        0.11856
H           1.24362       -0.86265        0.32426
