14
XYZ from PySCF
C           2.82290       -0.20907        0.71045
C           1.49265       -0.29945        0.51478
C           0.74464        0.58636       -0.36336
C          -0.59185        0.55612       -0.61056
C          -1.56511       -0.36856       -0.05113
C          -2.87989       -0.33726       -0.34509
H           3.42170        0.54847        0.21068
H           3.35285       -0.88552        1.37258
H           0.94000       -1.07612        1.03956
H           1.33582        1.34916       -0.86834
H          -0.99603        1.29650       -1.29966
H          -1.20357       -1.12495        0.64263
H          -3.58182       -1.04141        0.08882
H          -3.29284        0.39770       -1.03178
