14
XYZ from PySCF
C           2.82463960       -0.21634805        0.70191003
C           1.49544051       -0.31077445        0.50143276
C           0.73817349        0.61067978       -0.33079965
C          -0.59786849        0.57965868       -0.57972873
C          -1.56159984       -0.38182659       -0.06804774
C          -2.87669398       -0.34918789       -0.36018932
H           3.41580630        0.57176715        0.24183409
H           3.36153076       -0.92011543        1.32900527
H           0.95105184       -1.11895183        0.98576004
H           1.32146742        1.40410813       -0.79624662
H          -1.00956485        1.34995700       -1.23053152
H          -1.19218343       -1.16862520        0.58658443
H          -3.57107314       -1.08161053        0.03753686
H          -3.29749568        0.41528220       -1.00887107
